Test_Network/condensed/network_17/Feeder_2/Lines.txt
New Line.LINE29 Bus1=27 Bus2=30 phases=3 Linecode=25_SAC_XC Length=0.81449 Units=m
New Line.LINE53 Bus1=48 Bus2=54 phases=3 Linecode=2c_.04 Length=11.9875 Units=m
New Line.LINE109 Bus1=102 Bus2=110 phases=3 Linecode=2c_.04 Length=2.7893 Units=m
New Line.LINE117 Bus1=108 Bus2=118 phases=3 Linecode=2c_.04 Length=6.0342 Units=m
New Line.LINE185 Bus1=179 Bus2=186 phases=3 Linecode=2c_.04 Length=4.9741 Units=m
New Line.LINE192 Bus1=187 Bus2=193 phases=3 Linecode=2c_.04 Length=3.9626 Units=m
New Line.LINECmpd_0 Bus1=48 Bus2=412 phases=3 Linecode=4c_.25 Length=287.60962 Units=m
New Line.LINECmpd_1 Bus1=30 Bus2=42 phases=3 Linecode=3c_300_SAC_XC Length=3.235338 Units=m
New Line.LINECmpd_2 Bus1=108 Bus2=179 phases=3 Linecode=2c_.04 Length=7.70214 Units=m
New Line.LINECmpd_3 Bus1=54 Bus2=108 phases=3 Linecode=2c_.04 Length=2.68855 Units=m
New Line.LINECmpd_4 Bus1=54 Bus2=102 phases=3 Linecode=2c_.04 Length=5.75649 Units=m
New Line.LINECmpd_5 Bus1=179 Bus2=259 phases=3 Linecode=2c_.04 Length=13.891884 Units=m
New Line.LINECmpd_6 Bus1=1 Bus2=27 phases=3 Linecode=3c_300_SAC_XC Length=39.837898 Units=m
New Line.LINECmpd_7 Bus1=412 Bus2=460 phases=3 Linecode=35_SAC_XC Length=3.591222 Units=m
New Line.LINECmpd_8 Bus1=187 Bus2=254 phases=3 Linecode=2c_.04 Length=16.323191 Units=m
New Line.LINECmpd_9 Bus1=42 Bus2=48 phases=3 Linecode=4c_.25 Length=15.00965 Units=m
New Line.LINECmpd_10 Bus1=102 Bus2=187 phases=3 Linecode=2c_.04 Length=8.471274 Units=m
